Version 4
SHEET 1 880 680
WIRE 192 192 96 192
WIRE 384 192 272 192
WIRE 448 192 384 192
WIRE 384 288 384 192
WIRE 96 304 96 192
WIRE 96 464 96 384
WIRE 384 464 384 352
WIRE 384 464 96 464
WIRE 448 464 384 464
SYMBOL voltage 96 288 R0
SYMATTR InstName V1
SYMATTR Value 5
SYMBOL LED 368 288 R0
SYMATTR InstName D1
SYMBOL res 288 176 R90
WINDOW 0 0 56 VBottom 2
WINDOW 3 32 56 VTop 2
SYMATTR InstName R1
SYMATTR Value 12.7
