Version 4
SHEET 1 880 680
WIRE 320 96 96 96
WIRE 96 128 96 96
WIRE 320 128 320 96
WIRE 96 256 96 208
WIRE 320 256 320 208
WIRE 320 256 96 256
WIRE 96 272 96 256
FLAG 96 272 0
SYMBOL voltage 96 112 R0
WINDOW 123 0 0 Left 0
WINDOW 39 0 0 Left 0
SYMATTR InstName V1
SYMATTR Value SINE(0 10 50)
SYMBOL ind 304 112 R0
SYMATTR InstName L1
SYMATTR Value 8e-3
